<?xml version="1.0" encoding="UTF-8"?>
<!DOCTYPE network SYSTEM "http://www.matsim.org/files/dtd/network_v1.dtd">
<network>

<!-- ====================================================================== -->

	<nodes>
		<node id="a_0" x="0.0" y="0.0" />
		<node id="a_1" x="0.0" y="1000.0" />
		<node id="a_2" x="0.0" y="2000.0" />
		<node id="a_3" x="0.0" y="3000.0" />
		<node id="a_4" x="0.0" y="4000.0" />
		<node id="a_5" x="0.0" y="5000.0" />
		<node id="a_6" x="0.0" y="6000.0" />
		<node id="a_7" x="0.0" y="7000.0" />
		<node id="a_8" x="0.0" y="8000.0" />
		<node id="a_9" x="0.0" y="9000.0" />
		<node id="b_0" x="1000.0" y="0.0" />
		<node id="b_1" x="1000.0" y="1000.0" />
		<node id="b_2" x="1000.0" y="2000.0" />
		<node id="b_3" x="1000.0" y="3000.0" />
		<node id="b_4" x="1000.0" y="4000.0" />
		<node id="b_5" x="1000.0" y="5000.0" />
		<node id="b_6" x="1000.0" y="6000.0" />
		<node id="b_7" x="1000.0" y="7000.0" />
		<node id="b_8" x="1000.0" y="8000.0" />
		<node id="b_9" x="1000.0" y="9000.0" />
		<node id="c_0" x="2000.0" y="0.0" />
		<node id="c_1" x="2000.0" y="1000.0" />
		<node id="c_2" x="2000.0" y="2000.0" />
		<node id="c_3" x="2000.0" y="3000.0" />
		<node id="c_4" x="2000.0" y="4000.0" />
		<node id="c_5" x="2000.0" y="5000.0" />
		<node id="c_6" x="2000.0" y="6000.0" />
		<node id="c_7" x="2000.0" y="7000.0" />
		<node id="c_8" x="2000.0" y="8000.0" />
		<node id="c_9" x="2000.0" y="9000.0" />
		<node id="d_0" x="3000.0" y="0.0" />
		<node id="d_1" x="3000.0" y="1000.0" />
		<node id="d_2" x="3000.0" y="2000.0" />
		<node id="d_3" x="3000.0" y="3000.0" />
		<node id="d_4" x="3000.0" y="4000.0" />
		<node id="d_5" x="3000.0" y="5000.0" />
		<node id="d_6" x="3000.0" y="6000.0" />
		<node id="d_7" x="3000.0" y="7000.0" />
		<node id="d_8" x="3000.0" y="8000.0" />
		<node id="d_9" x="3000.0" y="9000.0" />
		<node id="e_0" x="4000.0" y="0.0" />
		<node id="e_1" x="4000.0" y="1000.0" />
		<node id="e_2" x="4000.0" y="2000.0" />
		<node id="e_3" x="4000.0" y="3000.0" />
		<node id="e_4" x="4000.0" y="4000.0" />
		<node id="e_5" x="4000.0" y="5000.0" />
		<node id="e_6" x="4000.0" y="6000.0" />
		<node id="e_7" x="4000.0" y="7000.0" />
		<node id="e_8" x="4000.0" y="8000.0" />
		<node id="e_9" x="4000.0" y="9000.0" />
		<node id="f_0" x="5000.0" y="0.0" />
		<node id="f_1" x="5000.0" y="1000.0" />
		<node id="f_2" x="5000.0" y="2000.0" />
		<node id="f_3" x="5000.0" y="3000.0" />
		<node id="f_4" x="5000.0" y="4000.0" />
		<node id="f_5" x="5000.0" y="5000.0" />
		<node id="f_6" x="5000.0" y="6000.0" />
		<node id="f_7" x="5000.0" y="7000.0" />
		<node id="f_8" x="5000.0" y="8000.0" />
		<node id="f_9" x="5000.0" y="9000.0" />
		<node id="g_0" x="6000.0" y="0.0" />
		<node id="g_1" x="6000.0" y="1000.0" />
		<node id="g_2" x="6000.0" y="2000.0" />
		<node id="g_3" x="6000.0" y="3000.0" />
		<node id="g_4" x="6000.0" y="4000.0" />
		<node id="g_5" x="6000.0" y="5000.0" />
		<node id="g_6" x="6000.0" y="6000.0" />
		<node id="g_7" x="6000.0" y="7000.0" />
		<node id="g_8" x="6000.0" y="8000.0" />
		<node id="g_9" x="6000.0" y="9000.0" />
		<node id="h_0" x="7000.0" y="0.0" />
		<node id="h_1" x="7000.0" y="1000.0" />
		<node id="h_2" x="7000.0" y="2000.0" />
		<node id="h_3" x="7000.0" y="3000.0" />
		<node id="h_4" x="7000.0" y="4000.0" />
		<node id="h_5" x="7000.0" y="5000.0" />
		<node id="h_6" x="7000.0" y="6000.0" />
		<node id="h_7" x="7000.0" y="7000.0" />
		<node id="h_8" x="7000.0" y="8000.0" />
		<node id="h_9" x="7000.0" y="9000.0" />
		<node id="i_0" x="8000.0" y="0.0" />
		<node id="i_1" x="8000.0" y="1000.0" />
		<node id="i_2" x="8000.0" y="2000.0" />
		<node id="i_3" x="8000.0" y="3000.0" />
		<node id="i_4" x="8000.0" y="4000.0" />
		<node id="i_5" x="8000.0" y="5000.0" />
		<node id="i_6" x="8000.0" y="6000.0" />
		<node id="i_7" x="8000.0" y="7000.0" />
		<node id="i_8" x="8000.0" y="8000.0" />
		<node id="i_9" x="8000.0" y="9000.0" />
		<node id="j_0" x="9000.0" y="0.0" />
		<node id="j_1" x="9000.0" y="1000.0" />
		<node id="j_2" x="9000.0" y="2000.0" />
		<node id="j_3" x="9000.0" y="3000.0" />
		<node id="j_4" x="9000.0" y="4000.0" />
		<node id="j_5" x="9000.0" y="5000.0" />
		<node id="j_6" x="9000.0" y="6000.0" />
		<node id="j_7" x="9000.0" y="7000.0" />
		<node id="j_8" x="9000.0" y="8000.0" />
		<node id="j_9" x="9000.0" y="9000.0" />
	</nodes>

<!-- ====================================================================== -->

	<links capperiod="01:00:00" effectivecellsize="7.5" effectivelanewidth="3.75">
		<link id="a_0_to_a_1" from="a_0" to="a_1" length="1000.0" freespeed="16.666666666666668" capacity="1000.0" permlanes="1.0" oneway="1" modes="pt,car" />
		<link id="a_0_to_b_0" from="a_0" to="b_0" length="1000.0" freespeed="16.666666666666668" capacity="1000.0" permlanes="1.0" oneway="1" modes="pt,car" />
		<link id="a_1_to_a_0" from="a_1" to="a_0" length="1000.0" freespeed="16.666666666666668" capacity="1000.0" permlanes="1.0" oneway="1" modes="pt,car" />
		<link id="a_1_to_a_2" from="a_1" to="a_2" length="1000.0" freespeed="16.666666666666668" capacity="1000.0" permlanes="1.0" oneway="1" modes="pt,car" />
		<link id="a_1_to_b_1" from="a_1" to="b_1" length="1000.0" freespeed="16.666666666666668" capacity="1000.0" permlanes="1.0" oneway="1" modes="pt,car" />
		<link id="a_2_to_a_1" from="a_2" to="a_1" length="1000.0" freespeed="16.666666666666668" capacity="1000.0" permlanes="1.0" oneway="1" modes="pt,car" />
		<link id="a_2_to_a_3" from="a_2" to="a_3" length="1000.0" freespeed="16.666666666666668" capacity="1000.0" permlanes="1.0" oneway="1" modes="pt,car" />
		<link id="a_2_to_b_2" from="a_2" to="b_2" length="1000.0" freespeed="16.666666666666668" capacity="1000.0" permlanes="1.0" oneway="1" modes="pt,car" />
		<link id="a_3_to_a_2" from="a_3" to="a_2" length="1000.0" freespeed="16.666666666666668" capacity="1000.0" permlanes="1.0" oneway="1" modes="pt,car" />
		<link id="a_3_to_a_4" from="a_3" to="a_4" length="1000.0" freespeed="16.666666666666668" capacity="1000.0" permlanes="1.0" oneway="1" modes="pt,car" />
		<link id="a_3_to_b_3" from="a_3" to="b_3" length="1000.0" freespeed="16.666666666666668" capacity="1000.0" permlanes="1.0" oneway="1" modes="pt,car" />
		<link id="a_4_to_a_3" from="a_4" to="a_3" length="1000.0" freespeed="16.666666666666668" capacity="1000.0" permlanes="1.0" oneway="1" modes="pt,car" />
		<link id="a_4_to_a_5" from="a_4" to="a_5" length="1000.0" freespeed="16.666666666666668" capacity="1000.0" permlanes="1.0" oneway="1" modes="pt,car" />
		<link id="a_4_to_b_4" from="a_4" to="b_4" length="1000.0" freespeed="16.666666666666668" capacity="1000.0" permlanes="1.0" oneway="1" modes="pt,car" />
		<link id="a_5_to_a_4" from="a_5" to="a_4" length="1000.0" freespeed="16.666666666666668" capacity="1000.0" permlanes="1.0" oneway="1" modes="pt,car" />
		<link id="a_5_to_a_6" from="a_5" to="a_6" length="1000.0" freespeed="16.666666666666668" capacity="1000.0" permlanes="1.0" oneway="1" modes="pt,car" />
		<link id="a_5_to_b_5" from="a_5" to="b_5" length="1000.0" freespeed="16.666666666666668" capacity="1000.0" permlanes="1.0" oneway="1" modes="pt,car" />
		<link id="a_6_to_a_5" from="a_6" to="a_5" length="1000.0" freespeed="16.666666666666668" capacity="1000.0" permlanes="1.0" oneway="1" modes="pt,car" />
		<link id="a_6_to_a_7" from="a_6" to="a_7" length="1000.0" freespeed="16.666666666666668" capacity="1000.0" permlanes="1.0" oneway="1" modes="pt,car" />
		<link id="a_6_to_b_6" from="a_6" to="b_6" length="1000.0" freespeed="16.666666666666668" capacity="1000.0" permlanes="1.0" oneway="1" modes="pt,car" />
		<link id="a_7_to_a_6" from="a_7" to="a_6" length="1000.0" freespeed="16.666666666666668" capacity="1000.0" permlanes="1.0" oneway="1" modes="pt,car" />
		<link id="a_7_to_a_8" from="a_7" to="a_8" length="1000.0" freespeed="16.666666666666668" capacity="1000.0" permlanes="1.0" oneway="1" modes="pt,car" />
		<link id="a_7_to_b_7" from="a_7" to="b_7" length="1000.0" freespeed="16.666666666666668" capacity="1000.0" permlanes="1.0" oneway="1" modes="pt,car" />
		<link id="a_8_to_a_7" from="a_8" to="a_7" length="1000.0" freespeed="16.666666666666668" capacity="1000.0" permlanes="1.0" oneway="1" modes="pt,car" />
		<link id="a_8_to_a_9" from="a_8" to="a_9" length="1000.0" freespeed="16.666666666666668" capacity="1000.0" permlanes="1.0" oneway="1" modes="pt,car" />
		<link id="a_8_to_b_8" from="a_8" to="b_8" length="1000.0" freespeed="16.666666666666668" capacity="1000.0" permlanes="1.0" oneway="1" modes="pt,car" />
		<link id="a_9_to_a_8" from="a_9" to="a_8" length="1000.0" freespeed="16.666666666666668" capacity="1000.0" permlanes="1.0" oneway="1" modes="pt,car" />
		<link id="a_9_to_b_9" from="a_9" to="b_9" length="1000.0" freespeed="16.666666666666668" capacity="1000.0" permlanes="1.0" oneway="1" modes="pt,car" />
		<link id="b_0_to_a_0" from="b_0" to="a_0" length="1000.0" freespeed="16.666666666666668" capacity="1000.0" permlanes="1.0" oneway="1" modes="pt,car" />
		<link id="b_0_to_b_1" from="b_0" to="b_1" length="1000.0" freespeed="16.666666666666668" capacity="1000.0" permlanes="1.0" oneway="1" modes="pt,car" />
		<link id="b_0_to_c_0" from="b_0" to="c_0" length="1000.0" freespeed="16.666666666666668" capacity="1000.0" permlanes="1.0" oneway="1" modes="pt,car" />
		<link id="b_1_to_a_1" from="b_1" to="a_1" length="1000.0" freespeed="16.666666666666668" capacity="1000.0" permlanes="1.0" oneway="1" modes="pt,car" />
		<link id="b_1_to_b_0" from="b_1" to="b_0" length="1000.0" freespeed="16.666666666666668" capacity="1000.0" permlanes="1.0" oneway="1" modes="pt,car" />
		<link id="b_1_to_b_2" from="b_1" to="b_2" length="1000.0" freespeed="16.666666666666668" capacity="1000.0" permlanes="1.0" oneway="1" modes="pt,car" />
		<link id="b_1_to_c_1" from="b_1" to="c_1" length="1000.0" freespeed="16.666666666666668" capacity="1000.0" permlanes="1.0" oneway="1" modes="pt,car" />
		<link id="b_2_to_a_2" from="b_2" to="a_2" length="1000.0" freespeed="16.666666666666668" capacity="1000.0" permlanes="1.0" oneway="1" modes="pt,car" />
		<link id="b_2_to_b_1" from="b_2" to="b_1" length="1000.0" freespeed="16.666666666666668" capacity="1000.0" permlanes="1.0" oneway="1" modes="pt,car" />
		<link id="b_2_to_b_3" from="b_2" to="b_3" length="1000.0" freespeed="16.666666666666668" capacity="1000.0" permlanes="1.0" oneway="1" modes="pt,car" />
		<link id="b_2_to_c_2" from="b_2" to="c_2" length="1000.0" freespeed="16.666666666666668" capacity="1000.0" permlanes="1.0" oneway="1" modes="pt,car" />
		<link id="b_3_to_a_3" from="b_3" to="a_3" length="1000.0" freespeed="16.666666666666668" capacity="1000.0" permlanes="1.0" oneway="1" modes="pt,car" />
		<link id="b_3_to_b_2" from="b_3" to="b_2" length="1000.0" freespeed="16.666666666666668" capacity="1000.0" permlanes="1.0" oneway="1" modes="pt,car" />
		<link id="b_3_to_b_4" from="b_3" to="b_4" length="1000.0" freespeed="16.666666666666668" capacity="1000.0" permlanes="1.0" oneway="1" modes="pt,car" />
		<link id="b_3_to_c_3" from="b_3" to="c_3" length="1000.0" freespeed="16.666666666666668" capacity="1000.0" permlanes="1.0" oneway="1" modes="pt,car" />
		<link id="b_4_to_a_4" from="b_4" to="a_4" length="1000.0" freespeed="16.666666666666668" capacity="1000.0" permlanes="1.0" oneway="1" modes="pt,car" />
		<link id="b_4_to_b_3" from="b_4" to="b_3" length="1000.0" freespeed="16.666666666666668" capacity="1000.0" permlanes="1.0" oneway="1" modes="pt,car" />
		<link id="b_4_to_b_5" from="b_4" to="b_5" length="1000.0" freespeed="16.666666666666668" capacity="1000.0" permlanes="1.0" oneway="1" modes="pt,car" />
		<link id="b_4_to_c_4" from="b_4" to="c_4" length="1000.0" freespeed="16.666666666666668" capacity="1000.0" permlanes="1.0" oneway="1" modes="pt,car" />
		<link id="b_5_to_a_5" from="b_5" to="a_5" length="1000.0" freespeed="16.666666666666668" capacity="1000.0" permlanes="1.0" oneway="1" modes="pt,car" />
		<link id="b_5_to_b_4" from="b_5" to="b_4" length="1000.0" freespeed="16.666666666666668" capacity="1000.0" permlanes="1.0" oneway="1" modes="pt,car" />
		<link id="b_5_to_b_6" from="b_5" to="b_6" length="1000.0" freespeed="16.666666666666668" capacity="1000.0" permlanes="1.0" oneway="1" modes="pt,car" />
		<link id="b_5_to_c_5" from="b_5" to="c_5" length="1000.0" freespeed="16.666666666666668" capacity="1000.0" permlanes="1.0" oneway="1" modes="pt,car" />
		<link id="b_6_to_a_6" from="b_6" to="a_6" length="1000.0" freespeed="16.666666666666668" capacity="1000.0" permlanes="1.0" oneway="1" modes="pt,car" />
		<link id="b_6_to_b_5" from="b_6" to="b_5" length="1000.0" freespeed="16.666666666666668" capacity="1000.0" permlanes="1.0" oneway="1" modes="pt,car" />
		<link id="b_6_to_b_7" from="b_6" to="b_7" length="1000.0" freespeed="16.666666666666668" capacity="1000.0" permlanes="1.0" oneway="1" modes="pt,car" />
		<link id="b_6_to_c_6" from="b_6" to="c_6" length="1000.0" freespeed="16.666666666666668" capacity="1000.0" permlanes="1.0" oneway="1" modes="pt,car" />
		<link id="b_7_to_a_7" from="b_7" to="a_7" length="1000.0" freespeed="16.666666666666668" capacity="1000.0" permlanes="1.0" oneway="1" modes="pt,car" />
		<link id="b_7_to_b_6" from="b_7" to="b_6" length="1000.0" freespeed="16.666666666666668" capacity="1000.0" permlanes="1.0" oneway="1" modes="pt,car" />
		<link id="b_7_to_b_8" from="b_7" to="b_8" length="1000.0" freespeed="16.666666666666668" capacity="1000.0" permlanes="1.0" oneway="1" modes="pt,car" />
		<link id="b_7_to_c_7" from="b_7" to="c_7" length="1000.0" freespeed="16.666666666666668" capacity="1000.0" permlanes="1.0" oneway="1" modes="pt,car" />
		<link id="b_8_to_a_8" from="b_8" to="a_8" length="1000.0" freespeed="16.666666666666668" capacity="1000.0" permlanes="1.0" oneway="1" modes="pt,car" />
		<link id="b_8_to_b_7" from="b_8" to="b_7" length="1000.0" freespeed="16.666666666666668" capacity="1000.0" permlanes="1.0" oneway="1" modes="pt,car" />
		<link id="b_8_to_b_9" from="b_8" to="b_9" length="1000.0" freespeed="16.666666666666668" capacity="1000.0" permlanes="1.0" oneway="1" modes="pt,car" />
		<link id="b_8_to_c_8" from="b_8" to="c_8" length="1000.0" freespeed="16.666666666666668" capacity="1000.0" permlanes="1.0" oneway="1" modes="pt,car" />
		<link id="b_9_to_a_9" from="b_9" to="a_9" length="1000.0" freespeed="16.666666666666668" capacity="1000.0" permlanes="1.0" oneway="1" modes="pt,car" />
		<link id="b_9_to_b_8" from="b_9" to="b_8" length="1000.0" freespeed="16.666666666666668" capacity="1000.0" permlanes="1.0" oneway="1" modes="pt,car" />
		<link id="b_9_to_c_9" from="b_9" to="c_9" length="1000.0" freespeed="16.666666666666668" capacity="1000.0" permlanes="1.0" oneway="1" modes="pt,car" />
		<link id="c_0_to_b_0" from="c_0" to="b_0" length="1000.0" freespeed="16.666666666666668" capacity="1000.0" permlanes="1.0" oneway="1" modes="pt,car" />
		<link id="c_0_to_c_1" from="c_0" to="c_1" length="1000.0" freespeed="16.666666666666668" capacity="1000.0" permlanes="1.0" oneway="1" modes="pt,car" />
		<link id="c_0_to_d_0" from="c_0" to="d_0" length="1000.0" freespeed="16.666666666666668" capacity="1000.0" permlanes="1.0" oneway="1" modes="pt,car" />
		<link id="c_1_to_b_1" from="c_1" to="b_1" length="1000.0" freespeed="16.666666666666668" capacity="1000.0" permlanes="1.0" oneway="1" modes="pt,car" />
		<link id="c_1_to_c_0" from="c_1" to="c_0" length="1000.0" freespeed="16.666666666666668" capacity="1000.0" permlanes="1.0" oneway="1" modes="pt,car" />
		<link id="c_1_to_c_2" from="c_1" to="c_2" length="1000.0" freespeed="16.666666666666668" capacity="1000.0" permlanes="1.0" oneway="1" modes="pt,car" />
		<link id="c_1_to_d_1" from="c_1" to="d_1" length="1000.0" freespeed="16.666666666666668" capacity="1000.0" permlanes="1.0" oneway="1" modes="pt,car" />
		<link id="c_2_to_b_2" from="c_2" to="b_2" length="1000.0" freespeed="16.666666666666668" capacity="1000.0" permlanes="1.0" oneway="1" modes="pt,car" />
		<link id="c_2_to_c_1" from="c_2" to="c_1" length="1000.0" freespeed="16.666666666666668" capacity="1000.0" permlanes="1.0" oneway="1" modes="pt,car" />
		<link id="c_2_to_c_3" from="c_2" to="c_3" length="1000.0" freespeed="16.666666666666668" capacity="1000.0" permlanes="1.0" oneway="1" modes="pt,car" />
		<link id="c_2_to_d_2" from="c_2" to="d_2" length="1000.0" freespeed="16.666666666666668" capacity="1000.0" permlanes="1.0" oneway="1" modes="pt,car" />
		<link id="c_3_to_b_3" from="c_3" to="b_3" length="1000.0" freespeed="16.666666666666668" capacity="1000.0" permlanes="1.0" oneway="1" modes="pt,car" />
		<link id="c_3_to_c_2" from="c_3" to="c_2" length="1000.0" freespeed="16.666666666666668" capacity="1000.0" permlanes="1.0" oneway="1" modes="pt,car" />
		<link id="c_3_to_c_4" from="c_3" to="c_4" length="1000.0" freespeed="16.666666666666668" capacity="1000.0" permlanes="1.0" oneway="1" modes="pt,car" />
		<link id="c_3_to_d_3" from="c_3" to="d_3" length="1000.0" freespeed="16.666666666666668" capacity="1000.0" permlanes="1.0" oneway="1" modes="pt,car" />
		<link id="c_4_to_b_4" from="c_4" to="b_4" length="1000.0" freespeed="16.666666666666668" capacity="1000.0" permlanes="1.0" oneway="1" modes="pt,car" />
		<link id="c_4_to_c_3" from="c_4" to="c_3" length="1000.0" freespeed="16.666666666666668" capacity="1000.0" permlanes="1.0" oneway="1" modes="pt,car" />
		<link id="c_4_to_c_5" from="c_4" to="c_5" length="1000.0" freespeed="16.666666666666668" capacity="1000.0" permlanes="1.0" oneway="1" modes="pt,car" />
		<link id="c_4_to_d_4" from="c_4" to="d_4" length="1000.0" freespeed="16.666666666666668" capacity="1000.0" permlanes="1.0" oneway="1" modes="pt,car" />
		<link id="c_5_to_b_5" from="c_5" to="b_5" length="1000.0" freespeed="16.666666666666668" capacity="1000.0" permlanes="1.0" oneway="1" modes="pt,car" />
		<link id="c_5_to_c_4" from="c_5" to="c_4" length="1000.0" freespeed="16.666666666666668" capacity="1000.0" permlanes="1.0" oneway="1" modes="pt,car" />
		<link id="c_5_to_c_6" from="c_5" to="c_6" length="1000.0" freespeed="16.666666666666668" capacity="1000.0" permlanes="1.0" oneway="1" modes="pt,car" />
		<link id="c_5_to_d_5" from="c_5" to="d_5" length="1000.0" freespeed="16.666666666666668" capacity="1000.0" permlanes="1.0" oneway="1" modes="pt,car" />
		<link id="c_6_to_b_6" from="c_6" to="b_6" length="1000.0" freespeed="16.666666666666668" capacity="1000.0" permlanes="1.0" oneway="1" modes="pt,car" />
		<link id="c_6_to_c_5" from="c_6" to="c_5" length="1000.0" freespeed="16.666666666666668" capacity="1000.0" permlanes="1.0" oneway="1" modes="pt,car" />
		<link id="c_6_to_c_7" from="c_6" to="c_7" length="1000.0" freespeed="16.666666666666668" capacity="1000.0" permlanes="1.0" oneway="1" modes="pt,car" />
		<link id="c_6_to_d_6" from="c_6" to="d_6" length="1000.0" freespeed="16.666666666666668" capacity="1000.0" permlanes="1.0" oneway="1" modes="pt,car" />
		<link id="c_7_to_b_7" from="c_7" to="b_7" length="1000.0" freespeed="16.666666666666668" capacity="1000.0" permlanes="1.0" oneway="1" modes="pt,car" />
		<link id="c_7_to_c_6" from="c_7" to="c_6" length="1000.0" freespeed="16.666666666666668" capacity="1000.0" permlanes="1.0" oneway="1" modes="pt,car" />
		<link id="c_7_to_c_8" from="c_7" to="c_8" length="1000.0" freespeed="16.666666666666668" capacity="1000.0" permlanes="1.0" oneway="1" modes="pt,car" />
		<link id="c_7_to_d_7" from="c_7" to="d_7" length="1000.0" freespeed="16.666666666666668" capacity="1000.0" permlanes="1.0" oneway="1" modes="pt,car" />
		<link id="c_8_to_b_8" from="c_8" to="b_8" length="1000.0" freespeed="16.666666666666668" capacity="1000.0" permlanes="1.0" oneway="1" modes="pt,car" />
		<link id="c_8_to_c_7" from="c_8" to="c_7" length="1000.0" freespeed="16.666666666666668" capacity="1000.0" permlanes="1.0" oneway="1" modes="pt,car" />
		<link id="c_8_to_c_9" from="c_8" to="c_9" length="1000.0" freespeed="16.666666666666668" capacity="1000.0" permlanes="1.0" oneway="1" modes="pt,car" />
		<link id="c_8_to_d_8" from="c_8" to="d_8" length="1000.0" freespeed="16.666666666666668" capacity="1000.0" permlanes="1.0" oneway="1" modes="pt,car" />
		<link id="c_9_to_b_9" from="c_9" to="b_9" length="1000.0" freespeed="16.666666666666668" capacity="1000.0" permlanes="1.0" oneway="1" modes="pt,car" />
		<link id="c_9_to_c_8" from="c_9" to="c_8" length="1000.0" freespeed="16.666666666666668" capacity="1000.0" permlanes="1.0" oneway="1" modes="pt,car" />
		<link id="c_9_to_d_9" from="c_9" to="d_9" length="1000.0" freespeed="16.666666666666668" capacity="1000.0" permlanes="1.0" oneway="1" modes="pt,car" />
		<link id="d_0_to_c_0" from="d_0" to="c_0" length="1000.0" freespeed="16.666666666666668" capacity="1000.0" permlanes="1.0" oneway="1" modes="pt,car" />
		<link id="d_0_to_d_1" from="d_0" to="d_1" length="1000.0" freespeed="16.666666666666668" capacity="1000.0" permlanes="1.0" oneway="1" modes="pt,car" />
		<link id="d_0_to_e_0" from="d_0" to="e_0" length="1000.0" freespeed="16.666666666666668" capacity="1000.0" permlanes="1.0" oneway="1" modes="pt,car" />
		<link id="d_1_to_c_1" from="d_1" to="c_1" length="1000.0" freespeed="16.666666666666668" capacity="1000.0" permlanes="1.0" oneway="1" modes="pt,car" />
		<link id="d_1_to_d_0" from="d_1" to="d_0" length="1000.0" freespeed="16.666666666666668" capacity="1000.0" permlanes="1.0" oneway="1" modes="pt,car" />
		<link id="d_1_to_d_2" from="d_1" to="d_2" length="1000.0" freespeed="16.666666666666668" capacity="1000.0" permlanes="1.0" oneway="1" modes="pt,car" />
		<link id="d_1_to_e_1" from="d_1" to="e_1" length="1000.0" freespeed="16.666666666666668" capacity="1000.0" permlanes="1.0" oneway="1" modes="pt,car" />
		<link id="d_2_to_c_2" from="d_2" to="c_2" length="1000.0" freespeed="16.666666666666668" capacity="1000.0" permlanes="1.0" oneway="1" modes="pt,car" />
		<link id="d_2_to_d_1" from="d_2" to="d_1" length="1000.0" freespeed="16.666666666666668" capacity="1000.0" permlanes="1.0" oneway="1" modes="pt,car" />
		<link id="d_2_to_d_3" from="d_2" to="d_3" length="1000.0" freespeed="16.666666666666668" capacity="1000.0" permlanes="1.0" oneway="1" modes="pt,car" />
		<link id="d_2_to_e_2" from="d_2" to="e_2" length="1000.0" freespeed="16.666666666666668" capacity="1000.0" permlanes="1.0" oneway="1" modes="pt,car" />
		<link id="d_3_to_c_3" from="d_3" to="c_3" length="1000.0" freespeed="16.666666666666668" capacity="1000.0" permlanes="1.0" oneway="1" modes="pt,car" />
		<link id="d_3_to_d_2" from="d_3" to="d_2" length="1000.0" freespeed="16.666666666666668" capacity="1000.0" permlanes="1.0" oneway="1" modes="pt,car" />
		<link id="d_3_to_d_4" from="d_3" to="d_4" length="1000.0" freespeed="16.666666666666668" capacity="1000.0" permlanes="1.0" oneway="1" modes="pt,car" />
		<link id="d_3_to_e_3" from="d_3" to="e_3" length="1000.0" freespeed="16.666666666666668" capacity="1000.0" permlanes="1.0" oneway="1" modes="pt,car" />
		<link id="d_4_to_c_4" from="d_4" to="c_4" length="1000.0" freespeed="16.666666666666668" capacity="1000.0" permlanes="1.0" oneway="1" modes="pt,car" />
		<link id="d_4_to_d_3" from="d_4" to="d_3" length="1000.0" freespeed="16.666666666666668" capacity="1000.0" permlanes="1.0" oneway="1" modes="pt,car" />
		<link id="d_4_to_d_5" from="d_4" to="d_5" length="1000.0" freespeed="16.666666666666668" capacity="1000.0" permlanes="1.0" oneway="1" modes="pt,car" />
		<link id="d_4_to_e_4" from="d_4" to="e_4" length="1000.0" freespeed="16.666666666666668" capacity="1000.0" permlanes="1.0" oneway="1" modes="pt,car" />
		<link id="d_5_to_c_5" from="d_5" to="c_5" length="1000.0" freespeed="16.666666666666668" capacity="1000.0" permlanes="1.0" oneway="1" modes="pt,car" />
		<link id="d_5_to_d_4" from="d_5" to="d_4" length="1000.0" freespeed="16.666666666666668" capacity="1000.0" permlanes="1.0" oneway="1" modes="pt,car" />
		<link id="d_5_to_d_6" from="d_5" to="d_6" length="1000.0" freespeed="16.666666666666668" capacity="1000.0" permlanes="1.0" oneway="1" modes="pt,car" />
		<link id="d_5_to_e_5" from="d_5" to="e_5" length="1000.0" freespeed="16.666666666666668" capacity="1000.0" permlanes="1.0" oneway="1" modes="pt,car" />
		<link id="d_6_to_c_6" from="d_6" to="c_6" length="1000.0" freespeed="16.666666666666668" capacity="1000.0" permlanes="1.0" oneway="1" modes="pt,car" />
		<link id="d_6_to_d_5" from="d_6" to="d_5" length="1000.0" freespeed="16.666666666666668" capacity="1000.0" permlanes="1.0" oneway="1" modes="pt,car" />
		<link id="d_6_to_d_7" from="d_6" to="d_7" length="1000.0" freespeed="16.666666666666668" capacity="1000.0" permlanes="1.0" oneway="1" modes="pt,car" />
		<link id="d_6_to_e_6" from="d_6" to="e_6" length="1000.0" freespeed="16.666666666666668" capacity="1000.0" permlanes="1.0" oneway="1" modes="pt,car" />
		<link id="d_7_to_c_7" from="d_7" to="c_7" length="1000.0" freespeed="16.666666666666668" capacity="1000.0" permlanes="1.0" oneway="1" modes="pt,car" />
		<link id="d_7_to_d_6" from="d_7" to="d_6" length="1000.0" freespeed="16.666666666666668" capacity="1000.0" permlanes="1.0" oneway="1" modes="pt,car" />
		<link id="d_7_to_d_8" from="d_7" to="d_8" length="1000.0" freespeed="16.666666666666668" capacity="1000.0" permlanes="1.0" oneway="1" modes="pt,car" />
		<link id="d_7_to_e_7" from="d_7" to="e_7" length="1000.0" freespeed="16.666666666666668" capacity="1000.0" permlanes="1.0" oneway="1" modes="pt,car" />
		<link id="d_8_to_c_8" from="d_8" to="c_8" length="1000.0" freespeed="16.666666666666668" capacity="1000.0" permlanes="1.0" oneway="1" modes="pt,car" />
		<link id="d_8_to_d_7" from="d_8" to="d_7" length="1000.0" freespeed="16.666666666666668" capacity="1000.0" permlanes="1.0" oneway="1" modes="pt,car" />
		<link id="d_8_to_d_9" from="d_8" to="d_9" length="1000.0" freespeed="16.666666666666668" capacity="1000.0" permlanes="1.0" oneway="1" modes="pt,car" />
		<link id="d_8_to_e_8" from="d_8" to="e_8" length="1000.0" freespeed="16.666666666666668" capacity="1000.0" permlanes="1.0" oneway="1" modes="pt,car" />
		<link id="d_9_to_c_9" from="d_9" to="c_9" length="1000.0" freespeed="16.666666666666668" capacity="1000.0" permlanes="1.0" oneway="1" modes="pt,car" />
		<link id="d_9_to_d_8" from="d_9" to="d_8" length="1000.0" freespeed="16.666666666666668" capacity="1000.0" permlanes="1.0" oneway="1" modes="pt,car" />
		<link id="d_9_to_e_9" from="d_9" to="e_9" length="1000.0" freespeed="16.666666666666668" capacity="1000.0" permlanes="1.0" oneway="1" modes="pt,car" />
		<link id="e_0_to_d_0" from="e_0" to="d_0" length="1000.0" freespeed="16.666666666666668" capacity="1000.0" permlanes="1.0" oneway="1" modes="pt,car" />
		<link id="e_0_to_e_1" from="e_0" to="e_1" length="1000.0" freespeed="16.666666666666668" capacity="1000.0" permlanes="1.0" oneway="1" modes="pt,car" />
		<link id="e_0_to_f_0" from="e_0" to="f_0" length="1000.0" freespeed="16.666666666666668" capacity="1000.0" permlanes="1.0" oneway="1" modes="pt,car" />
		<link id="e_1_to_d_1" from="e_1" to="d_1" length="1000.0" freespeed="16.666666666666668" capacity="1000.0" permlanes="1.0" oneway="1" modes="pt,car" />
		<link id="e_1_to_e_0" from="e_1" to="e_0" length="1000.0" freespeed="16.666666666666668" capacity="1000.0" permlanes="1.0" oneway="1" modes="pt,car" />
		<link id="e_1_to_e_2" from="e_1" to="e_2" length="1000.0" freespeed="16.666666666666668" capacity="1000.0" permlanes="1.0" oneway="1" modes="pt,car" />
		<link id="e_1_to_f_1" from="e_1" to="f_1" length="1000.0" freespeed="16.666666666666668" capacity="1000.0" permlanes="1.0" oneway="1" modes="pt,car" />
		<link id="e_2_to_d_2" from="e_2" to="d_2" length="1000.0" freespeed="16.666666666666668" capacity="1000.0" permlanes="1.0" oneway="1" modes="pt,car" />
		<link id="e_2_to_e_1" from="e_2" to="e_1" length="1000.0" freespeed="16.666666666666668" capacity="1000.0" permlanes="1.0" oneway="1" modes="pt,car" />
		<link id="e_2_to_e_3" from="e_2" to="e_3" length="1000.0" freespeed="16.666666666666668" capacity="1000.0" permlanes="1.0" oneway="1" modes="pt,car" />
		<link id="e_2_to_f_2" from="e_2" to="f_2" length="1000.0" freespeed="16.666666666666668" capacity="1000.0" permlanes="1.0" oneway="1" modes="pt,car" />
		<link id="e_3_to_d_3" from="e_3" to="d_3" length="1000.0" freespeed="16.666666666666668" capacity="1000.0" permlanes="1.0" oneway="1" modes="pt,car" />
		<link id="e_3_to_e_2" from="e_3" to="e_2" length="1000.0" freespeed="16.666666666666668" capacity="1000.0" permlanes="1.0" oneway="1" modes="pt,car" />
		<link id="e_3_to_e_4" from="e_3" to="e_4" length="1000.0" freespeed="16.666666666666668" capacity="1000.0" permlanes="1.0" oneway="1" modes="pt,car" />
		<link id="e_3_to_f_3" from="e_3" to="f_3" length="1000.0" freespeed="16.666666666666668" capacity="1000.0" permlanes="1.0" oneway="1" modes="pt,car" />
		<link id="e_4_to_d_4" from="e_4" to="d_4" length="1000.0" freespeed="16.666666666666668" capacity="1000.0" permlanes="1.0" oneway="1" modes="pt,car" />
		<link id="e_4_to_e_3" from="e_4" to="e_3" length="1000.0" freespeed="16.666666666666668" capacity="1000.0" permlanes="1.0" oneway="1" modes="pt,car" />
		<link id="e_4_to_e_5" from="e_4" to="e_5" length="1000.0" freespeed="16.666666666666668" capacity="1000.0" permlanes="1.0" oneway="1" modes="pt,car" />
		<link id="e_4_to_f_4" from="e_4" to="f_4" length="1000.0" freespeed="16.666666666666668" capacity="1000.0" permlanes="1.0" oneway="1" modes="pt,car" />
		<link id="e_5_to_d_5" from="e_5" to="d_5" length="1000.0" freespeed="16.666666666666668" capacity="1000.0" permlanes="1.0" oneway="1" modes="pt,car" />
		<link id="e_5_to_e_4" from="e_5" to="e_4" length="1000.0" freespeed="16.666666666666668" capacity="1000.0" permlanes="1.0" oneway="1" modes="pt,car" />
		<link id="e_5_to_e_6" from="e_5" to="e_6" length="1000.0" freespeed="16.666666666666668" capacity="1000.0" permlanes="1.0" oneway="1" modes="pt,car" />
		<link id="e_5_to_f_5" from="e_5" to="f_5" length="1000.0" freespeed="16.666666666666668" capacity="1000.0" permlanes="1.0" oneway="1" modes="pt,car" />